4
step: 1  T=      743.696K  Ek=     0.384520  Ep=    -1.344124  E_gap=    11.627336  Err=       0.0000000000000000  time_stamp= 1672955495.2365
 O        -0.60630         0.00006        -0.00044         0.00969         0.00026        -0.00111         1.19137         1.15536        -1.51216        -0.26925
 C         0.60515        -0.00194         0.00178        -0.01165        -0.00491         0.00450         1.12781         0.56167        -0.59949         0.14593
H         1.21231         0.94178        -0.00725         0.00718         0.00433        -0.01798         0.53961         0.04223        -0.02389         0.06063
H         1.20050        -0.91970        -0.00697        -0.02209         0.04999        -0.01800         0.76511        -0.29004        -0.33621         0.06269
4
step: 2  T=      695.068K  Ek=     0.359378  Ep=    -1.300138  E_gap=    11.657468  Err=       0.0000000000000000  time_stamp= 1672955495.5897
 O        -0.60246         0.00018        -0.00090         0.00925         0.00031        -0.00114        -2.62294        -0.45191        -0.06927        -0.26568
 C         0.60047        -0.00390         0.00361        -0.01139        -0.00484         0.00463         2.27999         1.14241        -1.51343         0.15155
H         1.21550         0.94351        -0.01440         0.00814         0.00506        -0.01847         0.02906         0.50011        -0.11828         0.05484
H         1.19216        -0.89996        -0.01436        -0.01918         0.04773        -0.01853         0.96706        -0.75158        -0.65586         0.05929
4
step: 3  T=      586.499K  Ek=     0.303243  Ep=    -1.234606  E_gap=    11.681067  Err=       0.0000000000000000  time_stamp= 1672955495.9362
 O        -0.59890         0.00027        -0.00130         0.00833         0.00025        -0.00117        -4.52736        -0.85729         0.81364        -0.26219
 C         0.59605        -0.00577         0.00542        -0.01038        -0.00436         0.00473         4.36702         3.29690        -0.41191         0.15692
H         1.21876         0.94591        -0.02182         0.00848         0.00559        -0.01878         0.03275        -0.00928        -0.24358         0.04906
H         1.18521        -0.88146        -0.02222        -0.01699         0.04240        -0.01900         0.33388        -1.82699        -0.07872         0.05621
4
step: 4  T=      436.519K  Ek=     0.225698  Ep=    -1.157473  E_gap=    11.698088  Err=       0.0000000000000000  time_stamp= 1672955496.2955
 O        -0.59579         0.00032        -0.00173         0.00710         0.00003        -0.00117        -6.68777        -0.40545         0.97775        -0.25906
 C         0.59217        -0.00732         0.00729        -0.00902        -0.00320         0.00470         3.42140         4.63136        -1.87245         0.16169
H         1.22217         0.94812        -0.02952         0.00903         0.00395        -0.01846         0.16923        -0.78772        -0.10780         0.04390
H         1.17866        -0.86591        -0.02988        -0.01427         0.03373        -0.01908         1.03635        -2.64554        -0.10336         0.05347
4
step: 5  T=      306.765K  Ek=     0.158610  Ep=    -1.084089  E_gap=    11.708829  Err=       0.0000000000000000  time_stamp= 1672955496.6489
 O        -0.59322         0.00029        -0.00212         0.00601        -0.00002        -0.00116        -2.45336         1.07438         1.06716        -0.25629
 C         0.58883        -0.00832         0.00908        -0.00792        -0.00207         0.00470         3.41554         2.94912         0.61165         0.16563
H         1.22597         0.94907        -0.03696         0.00742         0.00166        -0.01814        -1.00392        -0.38091        -0.08741         0.03966
H         1.17380        -0.85447        -0.03756        -0.00857         0.02337        -0.01934         1.91198        -2.74587        -0.11522         0.05099
4
step: 6  T=      208.504K  Ek=     0.107805  Ep=    -1.024848  E_gap=    11.715339  Err=       0.0000000000000000  time_stamp= 1672955497.0139
 O        -0.59098         0.00031        -0.00257         0.00482         0.00012        -0.00117        -4.82800         2.61173        -0.67469        -0.25378
 C         0.58584        -0.00898         0.01096        -0.00665        -0.00120         0.00472         6.54649         4.06057         0.18278         0.16871
H         1.22812         0.94942        -0.04432         0.00372         0.00070        -0.01789        -0.74510         0.02764         0.70103         0.03611
H         1.17179        -0.84724        -0.04542        -0.00087         0.01168        -0.01979         2.26988        -3.22249        -0.37507         0.04896
4
step: 7  T=      144.569K  Ek=     0.074748  Ep=    -0.993186  E_gap=    11.715815  Err=       0.0000000000000000  time_stamp= 1672955497.3670
 O        -0.58937         0.00039        -0.00307         0.00330         0.00018        -0.00112        -7.15829         1.58085         0.39845        -0.25179
 C         0.58351        -0.00929         0.01286        -0.00498        -0.00010         0.00453         4.45778         3.10511        -0.03872         0.17040
H         1.22895         0.94964        -0.05093         0.00050        -0.00111        -0.01668        -0.73658        -0.99347         1.05370         0.03372
H         1.17310        -0.84513        -0.05362         0.00640        -0.00051        -0.01942         1.42661        -3.15008         0.05211         0.04767
4
step: 8  T=      144.939K  Ek=     0.074939  Ep=    -0.989281  E_gap=    11.712826  Err=       0.0000000000000000  time_stamp= 1672955497.7323
 O        -0.58835         0.00053        -0.00354         0.00164         0.00017        -0.00113        -7.64359        -0.87951        -0.78110        -0.25037
 C         0.58186        -0.00915         0.01463        -0.00318         0.00102         0.00456         5.92393         2.13246         3.79317         0.17094
H         1.22864         0.94842        -0.05684        -0.00147        -0.00338        -0.01625        -0.18555        -0.41437        -0.00692         0.03261
H         1.17680        -0.84776        -0.06138         0.01331        -0.01158        -0.02004         1.97894        -2.83252        -0.13498         0.04682
4
step: 9  T=      194.803K  Ek=     0.100721  Ep=    -1.009535  E_gap=    11.702360  Err=       0.0000000000000000  time_stamp= 1672955498.0954
 O        -0.58806         0.00061        -0.00410        -0.00013         0.00015        -0.00112        -8.17013        -1.65126        -0.98887        -0.24948
 C         0.58097        -0.00855         0.01662        -0.00125         0.00218         0.00449         5.17755         3.42592        -1.01323         0.17010
H         1.22791         0.94680        -0.06342        -0.00315        -0.00615        -0.01538        -0.73239        -1.21198         0.35945         0.03279
H         1.18364        -0.85451        -0.06958         0.02010        -0.02214        -0.02034         1.48423        -2.84501         1.02657         0.04658
4
step: 10  T=      262.943K  Ek=     0.135952  Ep=    -1.048465  E_gap=    11.688078  Err=       0.0000000000000000  time_stamp= 1672955498.4375
 O        -0.58845         0.00064        -0.00458        -0.00187         0.00012        -0.00099        -9.72249         0.38860        -2.00402        -0.24922
 C         0.58086        -0.00740         0.01837         0.00075         0.00315         0.00395         4.53282         0.29042        -0.32609         0.16822
H         1.22615         0.94347        -0.06928        -0.00480        -0.00831        -0.01282        -0.22366        -0.16497         1.43895         0.03432
H         1.19287        -0.86549        -0.07691         0.02545        -0.03115        -0.01861         0.98475        -2.06762         0.28005         0.04668
4
step: 1  T=      353.461K  Ek=     0.182753  Ep=    -1.358699  E_gap=    11.558431  Err=       0.0000000000000000  time_stamp= 1699035826.2240
 O        -0.61343         0.00025        -0.00030        -0.00812         0.00053        -0.00064        -0.75565         1.20674         2.80979        -0.27428
 C         0.61269        -0.00088         0.00110         0.00754        -0.00200         0.00258         1.75891         1.45431        -0.88815         0.13675
H         1.21780         0.95006        -0.00437         0.01899         0.02414        -0.01028        -0.45670        -0.57120         0.20339         0.06824
H         1.21844        -0.94355        -0.00394         0.02012        -0.00875        -0.01028        -0.89076         0.02060        -0.16605         0.06929
4
step: 2  T=      324.891K  Ek=     0.167982  Ep=    -1.345874  E_gap=    11.524687  Err=       0.0000000000000000  time_stamp= 1699035827.4308
 O        -0.61670         0.00047        -0.00047        -0.00806         0.00051        -0.00065        -0.53897         3.03983         0.03218        -0.27613
 C         0.61582        -0.00164         0.00202         0.00775        -0.00196         0.00262        -1.96157        -1.58644         0.37228         0.13295
H         1.22505         0.95922        -0.00838         0.01747         0.02103        -0.01045        -0.22793        -1.26269        -0.31671         0.07060
H         1.22582        -0.94708        -0.00822         0.01821        -0.00579        -0.01045        -0.48524         1.33684        -0.25388         0.07259
4
step: 3  T=      276.137K  Ek=     0.142774  Ep=    -1.326710  E_gap=    11.492946  Err=       0.0000000000000000  time_stamp= 1699035828.6140
 O        -0.61987         0.00078        -0.00072        -0.00767         0.00050        -0.00065         1.65353         0.05463        -2.21661        -0.27785
 C         0.61888        -0.00257         0.00310         0.00756        -0.00183         0.00260        -0.95738         1.42518        -1.14255         0.12978
H         1.23195         0.96663        -0.01280         0.01513         0.01630        -0.01037        -0.92804        -1.43567         0.41448         0.07251
H         1.23281        -0.94842        -0.01260         0.01650        -0.00243        -0.01039        -0.77498         0.20320         0.21913         0.07555
4
step: 4  T=      223.356K  Ek=     0.115484  Ep=    -1.305012  E_gap=    11.464383  Err=       0.0000000000000000  time_stamp= 1699035829.7460
 O        -0.62283         0.00098        -0.00102        -0.00717         0.00047        -0.00058         0.54772         0.09940         0.32706        -0.27954
 C         0.62187        -0.00322         0.00413         0.00751        -0.00152         0.00233        -0.83971         0.85106        -1.02635         0.12716
H         1.23732         0.97204        -0.01655         0.01076         0.01214        -0.00922        -1.47904        -0.70608         0.47803         0.07427
H         1.23885        -0.94924        -0.01651         0.01356        -0.00156        -0.00928        -0.88460         0.28327         0.12529         0.07810
4
step: 5  T=      187.076K  Ek=     0.096726  Ep=    -1.282685  E_gap=    11.438933  Err=       0.0000000000000000  time_stamp= 1699035830.8011
 O        -0.62561         0.00116        -0.00123        -0.00682         0.00056        -0.00048        -0.76634         0.38814         0.49030        -0.28133
 C         0.62489        -0.00378         0.00500         0.00761        -0.00139         0.00191        -1.06018         0.74337        -1.91006         0.12489
H         1.24056         0.97634        -0.01988         0.00554         0.00786        -0.00753        -1.52608        -1.41890         0.71108         0.07595
H         1.24366        -0.94966        -0.02013         0.01191        -0.00015        -0.00758        -0.12705         0.57446         0.40603         0.08049
4
step: 6  T=      154.215K  Ek=     0.079735  Ep=    -1.262094  E_gap=    11.416350  Err=       0.0000000000000000  time_stamp= 1699035831.1996
 O        -0.62828         0.00139        -0.00139        -0.00635         0.00055        -0.00036         1.01217        -0.36614        -0.78098        -0.28313
 C         0.62795        -0.00430         0.00565         0.00735        -0.00113         0.00143        -3.48079         1.45330        -1.81320         0.12306
H         1.24169         0.97839        -0.02233         0.00251         0.00299        -0.00560        -0.32212        -1.07648        -0.18373         0.07740
H         1.24842        -0.94929        -0.02284         0.01067         0.00166        -0.00565        -0.74483         0.41963         0.97942         0.08267
4
step: 7  T=      136.957K  Ek=     0.070812  Ep=    -1.243525  E_gap=    11.397215  Err=       0.0000000000000000  time_stamp= 1699035831.6629
 O        -0.63068         0.00159        -0.00153        -0.00598         0.00056        -0.00028        -0.88569         1.03759         0.79674        -0.28472
 C         0.63076        -0.00467         0.00615         0.00719        -0.00091         0.00109        -0.19398         3.30263        -2.18609         0.12168
H         1.24254         0.97875        -0.02467        -0.00033        -0.00159        -0.00421        -1.55515        -0.93539         0.10016         0.07863
H         1.25221        -0.94831        -0.02430         0.00957         0.00358        -0.00428         0.11728         0.95567         0.11428         0.08441
4
step: 8  T=      124.815K  Ek=     0.064534  Ep=    -1.227091  E_gap=    11.380119  Err=       0.0000000000000000  time_stamp= 1699035832.9922
 O        -0.63305         0.00175        -0.00158        -0.00532         0.00065        -0.00032         7.45174        -0.79146        -0.86698        -0.28635
 C         0.63369        -0.00493         0.00648         0.00675        -0.00076         0.00121        -1.89478         1.21664         0.92441         0.12067
H         1.24128         0.97729        -0.02624        -0.00489        -0.00625        -0.00461        -1.00900        -1.02596        -0.34067         0.07967
H         1.25619        -0.94626        -0.02590         0.00886         0.00499        -0.00481        -0.19967         0.23445        -0.84043         0.08601
4
step: 9  T=       99.981K  Ek=     0.051694  Ep=    -1.215175  E_gap=    11.367473  Err=       0.0000000000000000  time_stamp= 1699035834.3516
 O        -0.63493         0.00198        -0.00172        -0.00411         0.00064        -0.00037         5.25926         1.93539        -0.50020        -0.28767
 C         0.63616        -0.00515         0.00705         0.00548        -0.00050         0.00142        -4.15049         2.28156         0.37226         0.12013
H         1.23845         0.97401        -0.02832        -0.00777        -0.01035        -0.00540        -0.38122        -0.91107        -0.26660         0.08034
H         1.25947        -0.94407        -0.02844         0.00783         0.00607        -0.00574        -0.12298         0.51032         0.61234         0.08720
4
step: 10  T=       82.986K  Ek=     0.042907  Ep=    -1.207650  E_gap=    11.359059  Err=       0.0000000000000000  time_stamp= 1699035835.7391
 O        -0.63634         0.00223        -0.00189        -0.00292         0.00059        -0.00036         5.37121         2.31557        -1.84482        -0.28858
 C         0.63806        -0.00530         0.00764         0.00392        -0.00019         0.00140        -5.23585         0.71676         0.00450         0.12013
H         1.23503         0.96908        -0.03069        -0.00829        -0.01478        -0.00529         0.33504        -1.38557         0.21609         0.08056
H         1.26249        -0.94135        -0.03027         0.00803         0.00768        -0.00575         0.09656         0.28810        -0.20702         0.08790
