4
step: 1  T=      400.000K  Ek=     0.206816  Ep=    -0.163628  E_gap=    10.912988  Err=       0.0000000000000000  time_stamp= 1672955491.1431
 O         0.69157         0.00083        -0.00045        -0.00733         0.00183        -0.00100       -12.18724        -0.07117         0.04731        -0.31799
 C        -0.70207        -0.00224         0.00201         0.00951        -0.00491         0.00443        10.44654         0.32081        -0.13537         0.10377
H        -1.30019         0.94578        -0.00840         0.01374         0.01201        -0.01850         0.90834        -0.45188         0.04500         0.10590
H        -1.31123        -0.93227        -0.00840        -0.01080         0.01742        -0.01850         0.83236         0.20225         0.04307         0.10832
4
step: 2  T=      400.000K  Ek=     0.206816  Ep=    -0.251416  E_gap=    10.942698  Err=       0.0000000000000000  time_stamp= 1672955491.5212
 O         0.68805         0.00156        -0.00085        -0.00858         0.00151        -0.00082       -11.89560        -0.13243         0.08809        -0.31575
 C        -0.69760        -0.00418         0.00378         0.01075        -0.00399         0.00366        10.15059         0.58671        -0.25355         0.10476
H        -1.29399         0.95024        -0.01577         0.01448         0.00846        -0.01530         0.93972        -0.55151         0.08601         0.10317
H        -1.31491        -0.92515        -0.01577        -0.00642         0.01508        -0.01531         0.80529         0.09723         0.07946         0.10781
4
step: 3  T=      400.000K  Ek=     0.206816  Ep=    -0.348155  E_gap=    10.975817  Err=       0.0000000000000000  time_stamp= 1672955491.8888
 O         0.68404         0.00216        -0.00118        -0.00942         0.00122        -0.00066       -11.53643        -0.18313         0.12157        -0.31327
 C        -0.69264        -0.00574         0.00523         0.01152        -0.00311         0.00295         9.81362         0.78608        -0.35068         0.10598
H        -1.28748         0.95320        -0.02182         0.01494         0.00515        -0.01230         0.94654        -0.61099         0.12053         0.10033
H        -1.31686        -0.91905        -0.02184        -0.00280         0.01262        -0.01235         0.77626         0.00804         0.10858         0.10695
4
step: 4  T=      400.000K  Ek=     0.206816  Ep=    -0.449508  E_gap=    11.011276  Err=       0.0000000000000000  time_stamp= 1672955492.2503
 O         0.67972         0.00264        -0.00143        -0.00996         0.00096        -0.00051       -11.11589        -0.22420         0.14823        -0.31064
 C        -0.68740        -0.00694         0.00639         0.01198        -0.00233         0.00231         9.43668         0.92250        -0.42791         0.10739
H        -1.28078         0.95479        -0.02665         0.01519         0.00226        -0.00966         0.93150        -0.63397         0.14821         0.09746
H        -1.31738        -0.91399        -0.02669         0.00010         0.01025        -0.00974         0.74771        -0.06432         0.13147         0.10579
4
step: 5  T=      400.000K  Ek=     0.206816  Ep=    -0.552031  E_gap=    11.048283  Err=       0.0000000000000000  time_stamp= 1672955492.6193
 O         0.67520         0.00301        -0.00163        -0.01029         0.00074        -0.00039       -10.63922        -0.25687         0.16881        -0.30793
 C        -0.68201        -0.00781         0.00728         0.01223        -0.00165         0.00177         9.02032         1.00312        -0.48738         0.10899
H        -1.27399         0.95521        -0.03040         0.01529        -0.00012        -0.00741         0.89788        -0.62578         0.16936         0.09458
H        -1.31677        -0.90994        -0.03049         0.00238         0.00810        -0.00753         0.72102        -0.12047         0.14921         0.10436
4
step: 6  T=      400.000K  Ek=     0.206816  Ep=    -0.653072  E_gap=    11.086263  Err=       0.0000000000000000  time_stamp= 1672955492.9897
 O         0.67057         0.00329        -0.00178        -0.01049         0.00055        -0.00028       -10.11064        -0.28243         0.18412        -0.30517
 C        -0.67654        -0.00841         0.00796         0.01234        -0.00109         0.00132         8.56493         1.03652        -0.53158         0.11076
H        -1.26719         0.95468        -0.03323         0.01528        -0.00201        -0.00552         0.84894        -0.59216         0.18467         0.09172
H        -1.31527        -0.90680        -0.03339         0.00418         0.00620        -0.00569         0.69677        -0.16193         0.16280         0.10269
4
step: 7  T=      400.000K  Ek=     0.206816  Ep=    -0.750623  E_gap=    11.124799  Err=       0.0000000000000000  time_stamp= 1672955493.3604
 O         0.66589         0.00350        -0.00188        -0.01061         0.00040        -0.00020        -9.53338        -0.30211         0.19493        -0.30239
 C        -0.67105        -0.00877         0.00845         0.01238        -0.00062         0.00094         8.07076         1.03137        -0.56295         0.11268
H        -1.26042         0.95343        -0.03530         0.01519        -0.00345        -0.00395         0.78770        -0.53863         0.19498         0.08888
H        -1.31307        -0.90444        -0.03554         0.00561         0.00455        -0.00416         0.67492        -0.19063         0.17304         0.10083
4
step: 8  T=      400.000K  Ek=     0.206816  Ep=    -0.843175  E_gap=    11.163591  Err=       0.0000000000000000  time_stamp= 1672955493.7267
 O         0.66118         0.00364        -0.00195        -0.01067         0.00027        -0.00012        -8.90988        -0.31696         0.20195        -0.29961
 C        -0.66558        -0.00896         0.00879         0.01238        -0.00025         0.00063         7.53799         0.99579        -0.58365         0.11474
H        -1.25375         0.95164        -0.03673         0.01503        -0.00447        -0.00265         0.71686        -0.47021         0.20112         0.08608
H        -1.31030        -0.90277        -0.03707         0.00678         0.00315        -0.00290         0.65503        -0.20862         0.18058         0.09879
4
step: 9  T=      400.000K  Ek=     0.206816  Ep=    -0.929596  E_gap=    11.202423  Err=       0.0000000000000000  time_stamp= 1672955494.0931
 O         0.65649         0.00374        -0.00199        -0.01071         0.00016        -0.00006        -8.24195        -0.32787         0.20577        -0.29683
 C        -0.66014        -0.00899         0.00901         0.01237         0.00005         0.00037         6.96671         0.93714        -0.59552         0.11692
H        -1.24719         0.94949        -0.03764         0.01481        -0.00514        -0.00158         0.63883        -0.39139         0.20387         0.08332
H        -1.30709        -0.90166        -0.03809         0.00778         0.00196        -0.00184         0.63642        -0.21788         0.18588         0.09659
4
step: 10  T=      400.000K  Ek=     0.206816  Ep=    -1.009033  E_gap=    11.241133  Err=       0.0000000000000000  time_stamp= 1672955494.4571
 O         0.65181         0.00378        -0.00201        -0.01072         0.00007        -0.00001        -7.53097        -0.33550         0.20690        -0.29405
 C        -0.65474        -0.00891         0.00912         0.01234         0.00029         0.00015         6.35695         0.86194        -0.60007         0.11923
H        -1.24077         0.94713        -0.03811         0.01454        -0.00551        -0.00068         0.55576        -0.30615         0.20390         0.08057
H        -1.30349        -0.90105        -0.03868         0.00866         0.00096        -0.00096         0.61826        -0.22029         0.18927         0.09425
4
step: 1  T=      400.000K  Ek=     0.206816  Ep=    -0.011864  E_gap=    10.864711  Err=       0.0000000000000000  time_stamp= 1699035813.4716
 O         0.69712         0.00068        -0.00061         0.00417         0.00128        -0.00114       -12.57790        -0.06288         0.06285        -0.32182
 C        -0.71071        -0.00029         0.00270        -0.00805        -0.00060         0.00506        11.32935        -0.37262        -0.17198         0.10445
H        -1.28792         0.92886        -0.01127         0.03411        -0.02060        -0.02112         0.44901         0.24876         0.05160         0.10756
H        -1.30870        -0.93617        -0.01127        -0.00449         0.00747        -0.02111         0.79954         0.18674         0.05753         0.10982
4
step: 2  T=      400.000K  Ek=     0.206816  Ep=     0.032050  E_gap=    10.854169  Err=       0.0000000000000000  time_stamp= 1699035814.6047
 O         0.69818         0.00119        -0.00106         0.00128         0.00141        -0.00126       -12.62862        -0.11081         0.11023        -0.32277
 C        -0.71320        -0.00056         0.00472        -0.00489        -0.00086         0.00562        11.73979        -0.66765        -0.28975         0.10571
H        -1.27393         0.92081        -0.01968         0.03967        -0.02116        -0.02350         0.13771         0.69454         0.08034         0.10654
H        -1.30989        -0.93304        -0.01967        -0.00171         0.00900        -0.02344         0.75112         0.08392         0.09918         0.11052
4
step: 3  T=      400.000K  Ek=     0.206816  Ep=     0.055580  E_gap=    10.852629  Err=       0.0000000000000000  time_stamp= 1699035815.7106
 O         0.69809         0.00175        -0.00156        -0.00187         0.00147        -0.00130       -12.59381        -0.16586         0.16349        -0.32320
 C        -0.71440        -0.00095         0.00694        -0.00112        -0.00120         0.00584        12.10130        -0.98002        -0.40991         0.10723
H        -1.25796         0.91288        -0.02902         0.04199        -0.01866        -0.02457        -0.19751         1.17801         0.10243         0.10505
H        -1.30999        -0.92937        -0.02897         0.00112         0.00966        -0.02438         0.69001        -0.03214         0.14399         0.11092
4
step: 4  T=      400.000K  Ek=     0.206816  Ep=     0.052759  E_gap=    10.861122  Err=       0.0000000000000000  time_stamp= 1699035816.8200
 O         0.69673         0.00233        -0.00207        -0.00486         0.00141        -0.00125       -12.47011        -0.22530         0.21976        -0.32305
 C        -0.71408        -0.00149         0.00925         0.00279        -0.00155         0.00565        12.36247        -1.25867        -0.52507         0.10876
H        -1.24131         0.90632        -0.03877         0.04032        -0.01318        -0.02397        -0.51466         1.63205         0.11615         0.10326
H        -1.30902        -0.92554        -0.03861         0.00360         0.00924        -0.02357         0.62230        -0.14808         0.18916         0.11104
4
step: 5  T=      400.000K  Ek=     0.206816  Ep=     0.018204  E_gap=    10.879433  Err=       0.0000000000000000  time_stamp= 1699035817.9351
 O         0.69418         0.00288        -0.00256        -0.00725         0.00125        -0.00110       -12.26030        -0.28480         0.27501        -0.32233
 C        -0.71217        -0.00219         0.01148         0.00627        -0.00183         0.00505        12.47126        -1.44346        -0.63118         0.11006
H        -1.22558         0.90230        -0.04827         0.03503        -0.00580        -0.02175        -0.76695         1.97687         0.12449         0.10138
H        -1.30710        -0.92195        -0.04789         0.00542         0.00785        -0.02106         0.55599        -0.24861         0.23168         0.11088
4
step: 6  T=      400.000K  Ek=     0.206816  Ep=    -0.049218  E_gap=    10.905914  Err=       0.0000000000000000  time_stamp= 1699035819.0151
 O         0.69069         0.00336        -0.00299        -0.00884         0.00102        -0.00089       -11.97437        -0.33928         0.32500        -0.32109
 C        -0.70886        -0.00301         0.01346         0.00891        -0.00200         0.00420        12.39654        -1.49118        -0.72823         0.11098
H        -1.21216         0.90149        -0.05687         0.02761         0.00183        -0.01846        -0.92087         2.15183         0.13412         0.09960
H        -1.30451        -0.91900        -0.05614         0.00646         0.00587        -0.01745         0.49870        -0.32138         0.26912         0.11051
4
step: 7  T=      400.000K  Ek=     0.206816  Ep=    -0.144119  E_gap=    10.938000  Err=       0.0000000000000000  time_stamp= 1699035820.1207
 O         0.68658         0.00375        -0.00333        -0.00968         0.00077        -0.00067       -11.62702        -0.38461         0.36654        -0.31946
 C        -0.70450        -0.00391         0.01509         0.01065        -0.00204         0.00327        12.14123        -1.39671        -0.81782         0.11149
H        -1.20182         0.90387        -0.06416         0.01987         0.00832        -0.01484        -0.96938         2.14232         0.15099         0.09800
H        -1.30154        -0.91690        -0.06291         0.00686         0.00378        -0.01355         0.45518        -0.36100         0.30030         0.10996
4
step: 8  T=      400.000K  Ek=     0.206816  Ep=    -0.256566  E_gap=    10.973155  Err=       0.0000000000000000  time_stamp= 1699035821.2616
 O         0.68215         0.00404        -0.00357        -0.01001         0.00054        -0.00046       -11.23248        -0.41890         0.39835        -0.31754
 C        -0.69946        -0.00481         0.01635         0.01166        -0.00198         0.00241        11.73526        -1.19000        -0.90040         0.11169
H        -1.19461         0.90884        -0.06997         0.01307         0.01306        -0.01144        -0.92921         1.97819         0.17689         0.09659
H        -1.29845        -0.91567        -0.06810         0.00689         0.00191        -0.00995         0.42643        -0.36928         0.32517         0.10926
4
step: 9  T=      400.000K  Ek=     0.206816  Ep=    -0.376262  E_gap=    11.009519  Err=       0.0000000000000000  time_stamp= 1699035822.3236
 O         0.67760         0.00424        -0.00374        -0.01009         0.00035        -0.00029       -10.80036        -0.44236         0.42077        -0.31543
 C        -0.69404        -0.00568         0.01726         0.01223        -0.00185         0.00168        11.21736        -0.91568        -0.97480         0.11173
H        -1.19009         0.91558        -0.07442         0.00774         0.01603        -0.00853        -0.82769         1.71033         0.20961         0.09527
H        -1.29537        -0.91519        -0.07183         0.00676         0.00042        -0.00690         0.41069        -0.35230         0.34442         0.10843
4
step: 10  T=      400.000K  Ek=     0.206816  Ep=    -0.495377  E_gap=    11.046030  Err=       0.0000000000000000  time_stamp= 1699035823.3509
 O         0.67304         0.00436        -0.00384        -0.01008         0.00019        -0.00015       -10.33491        -0.45634         0.43498        -0.31318
 C        -0.68842        -0.00648         0.01787         0.01255        -0.00167         0.00108        10.62123        -0.61495        -1.03923         0.11174
H        -1.18763         0.92330        -0.07767         0.00385         0.01751        -0.00610        -0.69129         1.38850         0.24531         0.09398
H        -1.29235        -0.91529        -0.07433         0.00664        -0.00068        -0.00443         0.40498        -0.31721         0.35893         0.10746
4
step: 1  T=      400.000K  Ek=     0.206816  Ep=    -0.037745  E_gap=    10.871307  Err=       0.0000000000000000  time_stamp= 1700770948.9538
 O         0.69639         0.00010         0.00006         0.00793         0.00054         0.00030       -12.54287        -0.00936        -0.00585        -0.32086
 C        -0.70865         0.00000        -0.00025        -0.01189        -0.00002        -0.00134        10.99384        -0.07123         0.01651         0.10362
H        -1.30309         0.93541         0.00106         0.01694        -0.02494         0.00558         0.74287        -0.13324        -0.00528         0.10845
H        -1.30653        -0.93703         0.00106        -0.00109         0.01665         0.00558         0.80615         0.21383        -0.00538         0.10879
4
step: 2  T=      400.000K  Ek=     0.206816  Ep=     0.035720  E_gap=    10.850293  Err=       0.0000000000000000  time_stamp= 1700770949.1380
 O         0.69896         0.00032         0.00018         0.00608         0.00066         0.00037       -12.70094        -0.02927        -0.01829        -0.32210
 C        -0.71270        -0.00001        -0.00079        -0.01030        -0.00009        -0.00165        11.52463        -0.23047         0.04948         0.10538
H        -1.29574         0.92533         0.00328         0.02402        -0.03069         0.00690         0.48821         0.28308        -0.01508         0.10782
H        -1.30635        -0.93021         0.00328         0.00220         0.02118         0.00690         0.68810        -0.02334        -0.01611         0.10891
4
step: 3  T=      400.000K  Ek=     0.206816  Ep=     0.102927  E_gap=    10.835589  Err=       0.0000000000000000  time_stamp= 1700770949.2946
 O         0.70078         0.00058         0.00032         0.00365         0.00080         0.00044       -12.79319        -0.05436        -0.03379        -0.32295
 C        -0.71608        -0.00006        -0.00145        -0.00791        -0.00024        -0.00198        12.10189        -0.43856         0.08621         0.10787
H        -1.28576         0.91327         0.00603         0.03072        -0.03475         0.00830         0.16014         0.81915        -0.02437         0.10652
H        -1.30494        -0.92175         0.00603         0.00552         0.02494         0.00829         0.53117        -0.32622        -0.02806         0.10856
4
step: 4  T=      400.000K  Ek=     0.206816  Ep=     0.162865  E_gap=    10.829192  Err=       0.0000000000000000  time_stamp= 1700770949.4504
 O         0.70162         0.00090         0.00050         0.00067         0.00092         0.00051       -12.81216        -0.08547        -0.05267        -0.32335
 C        -0.71846        -0.00019        -0.00223        -0.00465        -0.00050        -0.00231        12.70815        -0.69193         0.12439         0.11101
H        -1.27335         0.90000         0.00934         0.03623        -0.03599         0.00971        -0.23404         1.46428        -0.03123         0.10457
H        -1.30233        -0.91202         0.00933         0.00851         0.02726         0.00966         0.33806        -0.68688        -0.04049         0.10777
4
step: 5  T=      400.000K  Ek=     0.206816  Ep=     0.211093  E_gap=    10.833211  Err=       0.0000000000000000  time_stamp= 1700770949.6068
 O         0.70127         0.00126         0.00070        -0.00275         0.00102         0.00057       -12.74984        -0.12317        -0.07510        -0.32325
 C        -0.71951        -0.00043        -0.00315        -0.00053        -0.00087        -0.00258        13.30138        -0.97085         0.16122         0.11456
H        -1.25903         0.88673         0.01320         0.03930        -0.03305         0.01092        -0.66976         2.17806        -0.03359         0.10208
H        -1.29866        -0.90165         0.01316         0.01069         0.02718         0.01081         0.11822        -1.08404        -0.05253         0.10660
4
step: 6  T=      400.000K  Ek=     0.206816  Ep=     0.236204  E_gap=    10.849451  Err=       0.0000000000000000  time_stamp= 1700770949.7625
 O         0.69955         0.00167         0.00093        -0.00618         0.00105         0.00058       -12.59791        -0.16699        -0.10071        -0.32259
 C        -0.71886        -0.00084        -0.00417         0.00407        -0.00130        -0.00268        13.80175        -1.22991         0.19463         0.11813
H        -1.24383         0.87517         0.01754         0.03821        -0.02487         0.01149        -1.09604         2.87301        -0.03047         0.09927
H        -1.29430        -0.89160         0.01744         0.01139         0.02370         0.01126        -0.10780        -1.47611        -0.06345         0.10520
4
step: 7  T=      400.000K  Ek=     0.206816  Ep=     0.219887  E_gap=    10.878163  Err=       0.0000000000000000  time_stamp= 1700770949.9191
 O         0.69648         0.00208         0.00115        -0.00882         0.00097         0.00053       -12.35363        -0.21398        -0.12794        -0.32140
 C        -0.71635        -0.00144        -0.00523         0.00821        -0.00166        -0.00251        14.09293        -1.39801         0.22530         0.12112
H        -1.22938         0.86742         0.02211         0.03204        -0.01233         0.01093        -1.43426         3.41027        -0.02420         0.09651
H        -1.28983        -0.88325         0.02190         0.01018         0.01674         0.01056        -0.30505        -1.79828        -0.07316         0.10377
4
step: 8  T=      400.000K  Ek=     0.206816  Ep=     0.147812  E_gap=    10.916483  Err=       0.0000000000000000  time_stamp= 1700770950.0747
 O         0.69235         0.00245         0.00136        -0.01012         0.00078         0.00043       -12.03016        -0.25830        -0.15376        -0.31976
 C        -0.71216        -0.00219        -0.00622         0.01096        -0.00181        -0.00209        14.07277        -1.41142         0.25762         0.12299
H        -1.21767         0.86510         0.02647         0.02256         0.00102         0.00933        -1.60881         3.65351        -0.02116         0.09419
H        -1.28599        -0.87793         0.02607         0.00754         0.00818         0.00883        -0.43380        -1.98379        -0.08270         0.10258
4
step: 9  T=      400.000K  Ek=     0.206816  Ep=     0.024739  E_gap=    10.959138  Err=       0.0000000000000000  time_stamp= 1700770950.2306
 O         0.68772         0.00275         0.00152        -0.01028         0.00057         0.00031       -11.65567        -0.29414        -0.17518        -0.31783
 C        -0.70687        -0.00301        -0.00704         0.01222        -0.00178        -0.00159        13.72840        -1.26451         0.29593         0.12355
H        -1.20988         0.86831         0.03018         0.01301         0.01176         0.00732        -1.59910         3.56478        -0.02733         0.09254
H        -1.28330        -0.87618         0.02954         0.00460         0.00043         0.00673        -0.47363        -2.00613        -0.09342         0.10174
4
step: 10  T=      400.000K  Ek=     0.206816  Ep=    -0.127760  E_gap=    11.001498  Err=       0.0000000000000000  time_stamp= 1700770950.3859
 O         0.68305         0.00297         0.00164        -0.00991         0.00037         0.00020       -11.25655        -0.31911        -0.19088        -0.31578
 C        -0.70110        -0.00380        -0.00766         0.01256        -0.00163        -0.00113        13.13630        -1.01013         0.34009         0.12306
H        -1.20590         0.87574         0.03309         0.00545         0.01880         0.00546        -1.44610         3.21961        -0.04344         0.09149
H        -1.28183        -0.87755         0.03216         0.00217        -0.00534         0.00482        -0.43366        -1.89037        -0.10577         0.10123
