4
step: 1  T=      285.788K  Ek=     0.147764  Ep=    -1.350202  E_gap=    11.616198  Err=       0.0000000000000000  time_stamp= 1672955543.7476
 O        -0.60724        -0.00004         0.00013         0.00723        -0.00017         0.00040         0.83177        -1.08958        -0.50744        -0.26943
 C         0.60572        -0.00088        -0.00057        -0.00994        -0.00202        -0.00161         3.45615        -0.65757         0.07888         0.13959
H         1.21458         0.94787         0.00217         0.01204         0.01985         0.00641         0.26892        -0.11933         0.42765         0.06482
H         1.20639        -0.93676         0.00255        -0.00841         0.00687         0.00643         0.13105        -0.84393         0.48698         0.06502
4
step: 2  T=      252.909K  Ek=     0.130764  Ep=    -1.329674  E_gap=    11.633558  Err=       0.0000000000000000  time_stamp= 1672955544.0693
 O        -0.60443        -0.00009         0.00025         0.00684        -0.00022         0.00039        -1.44066         1.62691        -0.65841        -0.26652
 C         0.60185        -0.00166        -0.00122        -0.00932        -0.00171        -0.00157         2.50682         1.53366         2.03228         0.14070
H         1.21948         0.95579         0.00505         0.01106         0.01895         0.00624        -0.50128        -0.52959        -0.10769         0.06247
H         1.20301        -0.93459         0.00548        -0.00866         0.00493         0.00626        -0.20381        -0.34017        -0.44965         0.06334
4
step: 3  T=      212.758K  Ek=     0.110004  Ep=    -1.302967  E_gap=    11.641673  Err=       0.0000000000000000  time_stamp= 1672955544.3804
 O        -0.60177        -0.00016         0.00035         0.00638        -0.00023         0.00033        -3.81159        -1.23666        -3.39793        -0.26445
 C         0.59828        -0.00230        -0.00174        -0.00843        -0.00153        -0.00132         2.00623        -1.63521         0.29276         0.14449
H         1.22352         0.96290         0.00744         0.00888         0.01780         0.00524        -0.62511        -0.25717        -0.13074         0.05890
H         1.19938        -0.93293         0.00762        -0.00970         0.00397         0.00524        -0.52639        -0.33648         0.04728         0.06106
4
step: 4  T=      171.984K  Ek=     0.088922  Ep=    -1.271520  E_gap=    11.643894  Err=       0.0000000000000000  time_stamp= 1672955544.6986
 O        -0.59932        -0.00022         0.00040         0.00583        -0.00021         0.00035        -0.14689        -0.55167        -2.01395        -0.26329
 C         0.59511        -0.00293        -0.00216        -0.00735        -0.00130        -0.00139         5.53607         1.05973        -2.73081         0.14949
H         1.22666         0.96991         0.00952         0.00579         0.01603         0.00550        -0.91007        -0.88878        -0.11175         0.05500
H         1.19517        -0.93151         0.00984        -0.01071         0.00282         0.00555         0.03023        -0.46293         0.31503         0.05880
4
step: 5  T=      123.992K  Ek=     0.064109  Ep=    -1.240546  E_gap=    11.650063  Err=       0.0000000000000000  time_stamp= 1672955545.0060
 O        -0.59711        -0.00031         0.00056         0.00520        -0.00019         0.00035        -4.10903        -2.90488        -1.06203        -0.26237
 C         0.59241        -0.00336        -0.00278        -0.00620        -0.00079        -0.00138         2.52435         0.54416         1.62097         0.15310
H         1.22817         0.97567         0.01175         0.00171         0.01166         0.00537        -1.23305        -1.48964        -0.03227         0.05213
H         1.19080        -0.93072         0.01241        -0.01042         0.00087         0.00551         0.27708        -0.63542        -0.39446         0.05714
4
step: 6  T=       71.189K  Ek=     0.036807  Ep=    -1.213926  E_gap=    11.666170  Err=       0.0000000000000000  time_stamp= 1672955545.3256
 O        -0.59517        -0.00041         0.00065         0.00413        -0.00008         0.00029        -3.68276        -1.88962        -1.43766        -0.26075
 C         0.59016        -0.00353        -0.00323        -0.00451        -0.00038        -0.00115         9.23353         0.39745         0.18831         0.15338
H         1.22797         0.97931         0.01387        -0.00300         0.00670         0.00442        -1.31824        -1.14110        -0.76090         0.05108
H         1.18691        -0.93074         0.01431        -0.00878        -0.00080         0.00460         0.87817        -0.25445         0.36786         0.05629
4
step: 7  T=       29.845K  Ek=     0.015431  Ep=    -1.197917  E_gap=    11.684937  Err=       0.0000000000000000  time_stamp= 1672955545.6407
 O        -0.59382        -0.00046         0.00074         0.00255        -0.00004         0.00025        -6.66518        -0.07005         1.10967        -0.25887
 C         0.58881        -0.00358        -0.00363        -0.00241         0.00013        -0.00096         6.29092         4.11660         0.94015         0.15107
H         1.22563         0.98119         0.01510        -0.00556         0.00206         0.00363        -0.01002        -1.03490         0.07916         0.05163
H         1.18394        -0.93118         0.01647        -0.00625        -0.00285         0.00389         0.87510        -0.54960        -0.54859         0.05616
4
step: 8  T=       13.903K  Ek=     0.007188  Ep=    -1.192537  E_gap=    11.695806  Err=       0.0000000000000000  time_stamp= 1672955545.9592
 O        -0.59314        -0.00055         0.00085         0.00105        -0.00012         0.00020        -3.47567        -0.21745        -0.72807        -0.25779
 C         0.58824        -0.00333        -0.00400        -0.00041         0.00068        -0.00074         8.01370         0.41987         0.74757         0.14868
H         1.22339         0.98116         0.01658        -0.00652        -0.00260         0.00269        -0.35036        -1.24927        -0.29440         0.05278
H         1.18210        -0.93281         0.01757        -0.00519        -0.00359         0.00301        -0.07044         0.32147        -0.22232         0.05632
4
step: 9  T=       23.912K  Ek=     0.012364  Ep=    -1.197585  E_gap=    11.696499  Err=       0.0000000000000000  time_stamp= 1672955546.2742
 O        -0.59299        -0.00059         0.00091        -0.00047        -0.00024         0.00016        -6.47220        -3.34088         0.96709        -0.25867
 C         0.58848        -0.00301        -0.00423         0.00177         0.00126        -0.00060         7.30012         2.30815         0.94605         0.14894
H         1.22040         0.97918         0.01744        -0.00787        -0.00687         0.00205        -0.20608        -0.91431        -0.65117         0.05339
H         1.17986        -0.93398         0.01862        -0.00575        -0.00436         0.00246         0.07230        -0.68231         0.63142         0.05634
4
step: 10  T=       68.456K  Ek=     0.035394  Ep=    -1.213611  E_gap=    11.689625  Err=       0.0000000000000000  time_stamp= 1672955546.5864
 O        -0.59351        -0.00078         0.00097        -0.00201        -0.00035         0.00019        -9.09135        -1.45809         1.78725        -0.26096
 C         0.58964        -0.00229        -0.00446         0.00427         0.00187        -0.00066         5.47735         3.91417        -1.59123         0.15131
H         1.21708         0.97580         0.01771        -0.01117        -0.01053         0.00215        -2.00200        -0.39587        -0.61091         0.05350
H         1.17760        -0.93618         0.02004        -0.00779        -0.00621         0.00270        -0.87634         0.26114         0.46071         0.05615
4
step: 1  T=      285.756K  Ek=     0.147747  Ep=    -1.350201  E_gap=    11.615496  Err=       0.0000000000000000  time_stamp= 1699036389.5047
 O        -0.60724        -0.00004         0.00013         0.00723        -0.00017         0.00040         0.83155        -1.08958        -0.50744        -0.26946
 C         0.60572        -0.00088        -0.00057        -0.00994        -0.00202        -0.00161         3.45609        -0.65757         0.07888         0.13976
H         1.21458         0.94787         0.00217         0.01204         0.01985         0.00641         0.26906        -0.11947         0.42765         0.06475
H         1.20639        -0.93676         0.00255        -0.00841         0.00688         0.00643         0.13120        -0.84379         0.48698         0.06495
4
step: 2  T=      252.813K  Ek=     0.130714  Ep=    -1.329620  E_gap=    11.634213  Err=       0.0000000000000000  time_stamp= 1699036389.8926
 O        -0.60443        -0.00009         0.00025         0.00684        -0.00022         0.00039        -1.44723         1.62555        -0.65968        -0.26648
 C         0.60185        -0.00166        -0.00122        -0.00931        -0.00171        -0.00157         2.51503         1.53678         2.03409         0.14050
H         1.21948         0.95578         0.00505         0.01106         0.01894         0.00624        -0.50241        -0.53071        -0.10791         0.06258
H         1.20301        -0.93458         0.00548        -0.00866         0.00493         0.00626        -0.20431        -0.34081        -0.44997         0.06340
4
step: 3  T=      212.526K  Ek=     0.109885  Ep=    -1.302999  E_gap=    11.643773  Err=       0.0000000000000000  time_stamp= 1699036390.2561
 O        -0.60177        -0.00016         0.00035         0.00638        -0.00023         0.00033        -3.82155        -1.23829        -3.40054        -0.26429
 C         0.59828        -0.00230        -0.00174        -0.00843        -0.00153        -0.00131         2.01914        -1.63116         0.29646         0.14380
H         1.22351         0.96290         0.00744         0.00887         0.01779         0.00524        -0.62697        -0.25876        -0.13119         0.05922
H         1.19938        -0.93293         0.00762        -0.00970         0.00397         0.00524        -0.52750        -0.33731         0.04664         0.06126
4
step: 4  T=      171.705K  Ek=     0.088778  Ep=    -1.271570  E_gap=    11.645856  Err=       0.0000000000000000  time_stamp= 1699036390.6308
 O        -0.59932        -0.00022         0.00040         0.00582        -0.00021         0.00035        -0.14740        -0.55055        -2.01542        -0.26307
 C         0.59511        -0.00293        -0.00216        -0.00734        -0.00130        -0.00139         5.53731         1.05813        -2.72885         0.14872
H         1.22666         0.96990         0.00952         0.00577         0.01602         0.00550        -0.91020        -0.88867        -0.11193         0.05535
H         1.19517        -0.93151         0.00983        -0.01072         0.00281         0.00555         0.02964        -0.46257         0.31471         0.05900
4
step: 5  T=      123.856K  Ek=     0.064039  Ep=    -1.240548  E_gap=    11.649578  Err=       0.0000000000000000  time_stamp= 1699036391.0077
 O        -0.59712        -0.00031         0.00056         0.00520        -0.00019         0.00035        -4.09405        -2.90095        -1.05962        -0.26233
 C         0.59242        -0.00336        -0.00278        -0.00619        -0.00079        -0.00138         2.50579         0.53594         1.61741         0.15302
H         1.22815         0.97565         0.01175         0.00171         0.01166         0.00537        -1.23043        -1.48696        -0.03171         0.05215
H         1.19079        -0.93072         0.01241        -0.01043         0.00087         0.00550         0.27803        -0.63381        -0.39388         0.05716
4
step: 6  T=       71.233K  Ek=     0.036830  Ep=    -1.213981  E_gap=    11.662607  Err=       0.0000000000000000  time_stamp= 1699036391.4059
 O        -0.59517        -0.00041         0.00065         0.00413        -0.00008         0.00029        -3.66396        -1.88704        -1.43287        -0.26109
 C         0.59016        -0.00353        -0.00323        -0.00452        -0.00038        -0.00115         9.20933         0.39056         0.18139         0.15444
H         1.22796         0.97929         0.01387        -0.00300         0.00671         0.00442        -1.31498        -1.13774        -0.75989         0.05059
H         1.18690        -0.93074         0.01431        -0.00878        -0.00079         0.00460         0.88031        -0.25350         0.36897         0.05605
4
step: 7  T=       29.909K  Ek=     0.015464  Ep=    -1.197947  E_gap=    11.680897  Err=       0.0000000000000000  time_stamp= 1699036391.8654
 O        -0.59383        -0.00046         0.00074         0.00256        -0.00004         0.00025        -6.66057        -0.07235         1.11267        -0.25940
 C         0.58882        -0.00358        -0.00363        -0.00242         0.00012        -0.00097         6.28371         4.11903         0.93598         0.15275
H         1.22562         0.98118         0.01510        -0.00555         0.00208         0.00364        -0.00915        -1.03357         0.07970         0.05086
H         1.18393        -0.93118         0.01647        -0.00624        -0.00285         0.00390         0.87683        -0.55107        -0.54795         0.05580
4
step: 8  T=       13.898K  Ek=     0.007186  Ep=    -1.192610  E_gap=    11.695016  Err=       0.0000000000000000  time_stamp= 1699036392.4383
 O        -0.59314        -0.00055         0.00085         0.00105        -0.00012         0.00020        -3.48693        -0.22253        -0.72996        -0.25797
 C         0.58824        -0.00333        -0.00400        -0.00042         0.00068        -0.00074         8.02644         0.42921         0.75053         0.14966
H         1.22338         0.98115         0.01657        -0.00651        -0.00259         0.00269        -0.35201        -1.25048        -0.29489         0.05226
H         1.18209        -0.93280         0.01757        -0.00518        -0.00359         0.00301        -0.07028         0.31842        -0.22292         0.05605
4
step: 9  T=       23.891K  Ek=     0.012353  Ep=    -1.197590  E_gap=    11.699729  Err=       0.0000000000000000  time_stamp= 1699036393.1652
 O        -0.59299        -0.00059         0.00091        -0.00047        -0.00024         0.00016        -6.48344        -3.34282         0.96138        -0.25822
 C         0.58849        -0.00301        -0.00423         0.00177         0.00126        -0.00060         7.31406         2.31316         0.95415         0.14828
H         1.22040         0.97918         0.01744        -0.00786        -0.00686         0.00205        -0.20757        -0.91607        -0.65231         0.05359
H         1.17986        -0.93398         0.01862        -0.00574        -0.00437         0.00246         0.07108        -0.68360         0.63017         0.05636
4
step: 10  T=       68.451K  Ek=     0.035392  Ep=    -1.213567  E_gap=    11.693523  Err=       0.0000000000000000  time_stamp= 1699036393.7811
 O        -0.59351        -0.00078         0.00097        -0.00201        -0.00035         0.00019        -9.08964        -1.45460         1.78282        -0.26033
 C         0.58964        -0.00229        -0.00446         0.00427         0.00187        -0.00066         5.47649         3.90891        -1.58550         0.14942
H         1.21708         0.97580         0.01771        -0.01117        -0.01052         0.00215        -2.00146        -0.39646        -0.61162         0.05441
H         1.17760        -0.93618         0.02003        -0.00778        -0.00622         0.00270        -0.87773         0.26350         0.46011         0.05650
