4
step: 1  T=      285.788K  Ek=     0.147764  Ep=    -1.350202  E_gap=    11.616198  Err=       0.0005997663747522  time_stamp= 1672955582.3327
 O        -0.60724        -0.00004         0.00013         0.00723        -0.00017         0.00040         0.83177        -1.08958        -0.50744        -0.26943
 C         0.60572        -0.00088        -0.00057        -0.00994        -0.00202        -0.00161         3.45615        -0.65757         0.07888         0.13959
H         1.21458         0.94787         0.00217         0.01204         0.01985         0.00641         0.26892        -0.11933         0.42765         0.06482
H         1.20639        -0.93676         0.00255        -0.00841         0.00687         0.00643         0.13105        -0.84393         0.48698         0.06502
4
step: 2  T=      253.046K  Ek=     0.130835  Ep=    -1.329784  E_gap=    11.631084  Err=       0.0006606929156715  time_stamp= 1672955582.6660
 O        -0.60443        -0.00009         0.00025         0.00684        -0.00022         0.00039        -1.42654         1.62872        -0.65483        -0.26674
 C         0.60185        -0.00166        -0.00122        -0.00932        -0.00171        -0.00157         2.48868         1.52856         2.02729         0.14162
H         1.21948         0.95579         0.00505         0.01107         0.01895         0.00625        -0.49887        -0.52707        -0.10718         0.06202
H         1.20301        -0.93459         0.00548        -0.00866         0.00493         0.00626        -0.20220        -0.33941        -0.44876         0.06311
4
step: 3  T=      213.173K  Ek=     0.110219  Ep=    -1.302888  E_gap=    11.637285  Err=       0.0004125983794241  time_stamp= 1672955582.9898
 O        -0.60177        -0.00016         0.00035         0.00639        -0.00022         0.00033        -3.79209        -1.23529        -3.39176        -0.26487
 C         0.59827        -0.00230        -0.00174        -0.00844        -0.00153        -0.00132         1.98077        -1.64040         0.28418         0.14625
H         1.22352         0.96290         0.00744         0.00889         0.01782         0.00525        -0.62178        -0.25363        -0.12990         0.05802
H         1.19938        -0.93293         0.00762        -0.00969         0.00398         0.00525        -0.52376        -0.33619         0.04885         0.06061
4
step: 4  T=      172.463K  Ek=     0.089170  Ep=    -1.271467  E_gap=    11.642253  Err=       0.0004563339917387  time_stamp= 1672955583.3125
 O        -0.59932        -0.00022         0.00040         0.00583        -0.00021         0.00035        -0.15012        -0.55474        -2.01304        -0.26351
 C         0.59510        -0.00293        -0.00216        -0.00736        -0.00130        -0.00140         5.53941         1.06506        -2.73185         0.15044
H         1.22668         0.96993         0.00953         0.00581         0.01605         0.00551        -0.91061        -0.88941        -0.11183         0.05453
H         1.19518        -0.93151         0.00984        -0.01069         0.00282         0.00556         0.03066        -0.46457         0.31523         0.05854
4
step: 5  T=      124.150K  Ek=     0.064191  Ep=    -1.240592  E_gap=    11.654911  Err=       0.0005200024222096  time_stamp= 1672955583.6401
 O        -0.59711        -0.00031         0.00056         0.00520        -0.00019         0.00035        -4.14295        -2.91007        -1.07162        -0.26195
 C         0.59239        -0.00336        -0.00278        -0.00620        -0.00079        -0.00138         2.56766         0.55752         1.63435         0.15152
H         1.22819         0.97569         0.01176         0.00172         0.01167         0.00538        -1.23869        -1.49594        -0.03394         0.05293
H         1.19081        -0.93072         0.01242        -0.01041         0.00087         0.00551         0.27333        -0.63729        -0.39658         0.05750
4
step: 6  T=       71.016K  Ek=     0.036718  Ep=    -1.213821  E_gap=    11.675061  Err=       0.0003892301401407  time_stamp= 1672955583.9814
 O        -0.59516        -0.00041         0.00065         0.00413        -0.00009         0.00029        -3.71691        -1.88997        -1.44828        -0.25981
 C         0.59014        -0.00353        -0.00323        -0.00450        -0.00038        -0.00115         9.27892         0.40334         0.20313         0.14972
H         1.22799         0.97933         0.01388        -0.00302         0.00668         0.00441        -1.32403        -1.14790        -0.76277         0.05290
H         1.18692        -0.93074         0.01432        -0.00878        -0.00081         0.00459         0.87272        -0.25319         0.36552         0.05718
4
step: 7  T=       29.701K  Ek=     0.015357  Ep=    -1.197851  E_gap=    11.689705  Err=       0.0006464934024693  time_stamp= 1672955584.3266
 O        -0.59382        -0.00046         0.00074         0.00254        -0.00004         0.00025        -6.66294        -0.06380         1.11055        -0.25828
 C         0.58881        -0.00358        -0.00363        -0.00239         0.00013        -0.00096         6.29102         4.10681         0.93900         0.14845
H         1.22564         0.98120         0.01511        -0.00558         0.00203         0.00362        -0.01028        -1.03573         0.07943         0.05296
H         1.18395        -0.93119         0.01648        -0.00627        -0.00285         0.00388         0.87302        -0.54523        -0.54858         0.05687
4
step: 8  T=       13.914K  Ek=     0.007194  Ep=    -1.192526  E_gap=    11.691219  Err=       0.0004497101153268  time_stamp= 1672955584.6563
 O        -0.59314        -0.00055         0.00085         0.00104        -0.00012         0.00019        -3.44246        -0.21145        -0.71487        -0.25829
 C         0.58824        -0.00333        -0.00400        -0.00040         0.00068        -0.00074         7.97281         0.40570         0.72941         0.14992
H         1.22339         0.98115         0.01658        -0.00654        -0.00262         0.00268        -0.34606        -1.24377        -0.29225         0.05220
H         1.18210        -0.93281         0.01757        -0.00521        -0.00357         0.00300        -0.06705         0.32414        -0.21953         0.05617
4
step: 9  T=       23.897K  Ek=     0.012356  Ep=    -1.197614  E_gap=    11.686780  Err=       0.0003866705101499  time_stamp= 1672955584.9895
 O        -0.59299        -0.00059         0.00091        -0.00047        -0.00024         0.00017        -6.44848        -3.34322         0.97910        -0.25986
 C         0.58849        -0.00301        -0.00423         0.00177         0.00126        -0.00060         7.26754         2.30839         0.93002         0.15332
H         1.22040         0.97917         0.01744        -0.00787        -0.00687         0.00206        -0.20269        -0.90870        -0.64938         0.05121
H         1.17985        -0.93397         0.01862        -0.00575        -0.00434         0.00247         0.07776        -0.68580         0.63364         0.05534
4
step: 10  T=       68.355K  Ek=     0.035342  Ep=    -1.213579  E_gap=    11.684682  Err=       0.0006127559308427  time_stamp= 1672955585.3319
 O        -0.59351        -0.00078         0.00097        -0.00201        -0.00035         0.00019        -9.10311        -1.46643         1.78320        -0.26154
 C         0.58964        -0.00229        -0.00446         0.00426         0.00187        -0.00066         5.48780         3.92917        -1.58525         0.15467
H         1.21708         0.97580         0.01772        -0.01117        -0.01052         0.00217        -2.00254        -0.39591        -0.61162         0.05176
H         1.17760        -0.93616         0.02004        -0.00778        -0.00622         0.00272        -0.87449         0.25453         0.45948         0.05512
4
step: 1  T=      285.756K  Ek=     0.147747  Ep=    -1.350201  E_gap=    11.615496  Err=       0.0005855582635917  time_stamp= 1699036654.5072
 O        -0.60724        -0.00004         0.00013         0.00723        -0.00017         0.00040         0.83155        -1.08958        -0.50744        -0.26946
 C         0.60572        -0.00088        -0.00057        -0.00994        -0.00202        -0.00161         3.45609        -0.65757         0.07888         0.13976
H         1.21458         0.94787         0.00217         0.01204         0.01985         0.00641         0.26906        -0.11947         0.42765         0.06475
H         1.20639        -0.93676         0.00255        -0.00841         0.00688         0.00643         0.13120        -0.84379         0.48698         0.06495
4
step: 2  T=      253.017K  Ek=     0.130820  Ep=    -1.329788  E_gap=    11.631488  Err=       0.0005668759594910  time_stamp= 1699036654.9446
 O        -0.60443        -0.00009         0.00025         0.00684        -0.00022         0.00039        -1.42623         1.62871        -0.65483        -0.26672
 C         0.60185        -0.00166        -0.00122        -0.00932        -0.00171        -0.00157         2.48830         1.52858         2.02729         0.14156
H         1.21948         0.95578         0.00505         0.01106         0.01895         0.00625        -0.49884        -0.52693        -0.10718         0.06204
H         1.20301        -0.93458         0.00548        -0.00866         0.00493         0.00626        -0.20216        -0.33955        -0.44875         0.06312
4
step: 3  T=      213.152K  Ek=     0.110208  Ep=    -1.302890  E_gap=    11.637902  Err=       0.0003873163444131  time_stamp= 1699036655.3762
 O        -0.60177        -0.00016         0.00035         0.00639        -0.00022         0.00033        -3.79170        -1.23531        -3.39176        -0.26484
 C         0.59827        -0.00230        -0.00174        -0.00844        -0.00153        -0.00132         1.98058        -1.64036         0.28419         0.14607
H         1.22352         0.96290         0.00744         0.00889         0.01782         0.00525        -0.62188        -0.25339        -0.12990         0.05809
H         1.19938        -0.93293         0.00762        -0.00969         0.00398         0.00525        -0.52386        -0.33645         0.04885         0.06069
4
step: 4  T=      172.448K  Ek=     0.089162  Ep=    -1.271479  E_gap=    11.642238  Err=       0.0004401518467112  time_stamp= 1699036655.7798
 O        -0.59932        -0.00022         0.00040         0.00583        -0.00021         0.00035        -0.15006        -0.55474        -2.01303        -0.26352
 C         0.59510        -0.00293        -0.00216        -0.00736        -0.00130        -0.00140         5.53957         1.06508        -2.73185         0.15036
H         1.22668         0.96992         0.00953         0.00581         0.01605         0.00551        -0.91072        -0.88932        -0.11183         0.05458
H         1.19518        -0.93151         0.00984        -0.01069         0.00282         0.00556         0.03055        -0.46468         0.31523         0.05859
4
step: 5  T=      124.137K  Ek=     0.064184  Ep=    -1.240602  E_gap=    11.654488  Err=       0.0004943863970239  time_stamp= 1699036656.1860
 O        -0.59711        -0.00031         0.00056         0.00520        -0.00019         0.00035        -4.14306        -2.91005        -1.07162        -0.26199
 C         0.59240        -0.00336        -0.00278        -0.00620        -0.00079        -0.00138         2.56764         0.55751         1.63434         0.15162
H         1.22818         0.97569         0.01176         0.00172         0.01167         0.00538        -1.23863        -1.49601        -0.03394         0.05290
H         1.19081        -0.93071         0.01242        -0.01041         0.00087         0.00551         0.27339        -0.63723        -0.39657         0.05747
4
step: 6  T=       71.008K  Ek=     0.036714  Ep=    -1.213835  E_gap=    11.674875  Err=       0.0003725519923938  time_stamp= 1699036656.5824
 O        -0.59516        -0.00041         0.00065         0.00412        -0.00009         0.00029        -3.71666        -1.88997        -1.44829        -0.25980
 C         0.59014        -0.00353        -0.00323        -0.00450        -0.00038        -0.00115         9.27818         0.40334         0.20313         0.14986
H         1.22799         0.97932         0.01388        -0.00302         0.00668         0.00441        -1.32379        -1.14792        -0.76276         0.05283
H         1.18692        -0.93074         0.01432        -0.00878        -0.00081         0.00459         0.87297        -0.25318         0.36552         0.05711
4
step: 7  T=       29.697K  Ek=     0.015355  Ep=    -1.197870  E_gap=    11.689892  Err=       0.0006279204054392  time_stamp= 1699036657.0120
 O        -0.59382        -0.00046         0.00074         0.00254        -0.00004         0.00025        -6.66229        -0.06382         1.11054        -0.25824
 C         0.58881        -0.00358        -0.00363        -0.00239         0.00013        -0.00096         6.28995         4.10685         0.93901         0.14847
H         1.22564         0.98119         0.01511        -0.00558         0.00203         0.00362        -0.01008        -1.03555         0.07943         0.05293
H         1.18394        -0.93118         0.01648        -0.00627        -0.00285         0.00388         0.87325        -0.54544        -0.54858         0.05684
4
step: 8  T=       13.913K  Ek=     0.007193  Ep=    -1.192542  E_gap=    11.691370  Err=       0.0004480844938144  time_stamp= 1699036657.4316
 O        -0.59314        -0.00055         0.00085         0.00104        -0.00012         0.00019        -3.44194        -0.21148        -0.71488        -0.25828
 C         0.58824        -0.00333        -0.00400        -0.00040         0.00068        -0.00074         7.97232         0.40576         0.72942         0.14982
H         1.22339         0.98115         0.01658        -0.00654        -0.00262         0.00268        -0.34609        -1.24354        -0.29225         0.05225
H         1.18209        -0.93281         0.01757        -0.00521        -0.00357         0.00300        -0.06706         0.32387        -0.21952         0.05621
4
step: 9  T=       23.895K  Ek=     0.012355  Ep=    -1.197631  E_gap=    11.686692  Err=       0.0003865142516306  time_stamp= 1699036657.8535
 O        -0.59299        -0.00059         0.00091        -0.00047        -0.00024         0.00017        -6.44840        -3.34322         0.97911        -0.25990
 C         0.58849        -0.00301        -0.00423         0.00177         0.00126        -0.00060         7.26781         2.30840         0.93001         0.15323
H         1.22040         0.97917         0.01744        -0.00787        -0.00687         0.00206        -0.20287        -0.90861        -0.64938         0.05127
H         1.17985        -0.93397         0.01862        -0.00575        -0.00434         0.00247         0.07759        -0.68591         0.63364         0.05540
4
step: 10  T=       68.354K  Ek=     0.035342  Ep=    -1.213597  E_gap=    11.684615  Err=       0.0005971229159975  time_stamp= 1699036658.2815
 O        -0.59351        -0.00078         0.00097        -0.00201        -0.00035         0.00019        -9.10320        -1.46640         1.78321        -0.26156
 C         0.58964        -0.00229        -0.00446         0.00426         0.00187        -0.00066         5.48802         3.92912        -1.58527         0.15466
H         1.21708         0.97579         0.01772        -0.01117        -0.01052         0.00217        -2.00260        -0.39598        -0.61161         0.05176
H         1.17760        -0.93616         0.02004        -0.00778        -0.00622         0.00272        -0.87456         0.25462         0.45948         0.05513
